* NGSPICE file created from fifo.ext - technology: sky130A

* Black-box entry subcircuit for sky130_fd_sc_hd__tapvpwrvgnd_1 abstract view
.subckt sky130_fd_sc_hd__tapvpwrvgnd_1 VGND VPWR
.ends

* Black-box entry subcircuit for sky130_fd_sc_hd__decap_3 abstract view
.subckt sky130_fd_sc_hd__decap_3 VGND VNB VPB VPWR
.ends

* Black-box entry subcircuit for sky130_fd_sc_hd__fill_1 abstract view
.subckt sky130_fd_sc_hd__fill_1 VGND VNB VPB VPWR
.ends

* Black-box entry subcircuit for sky130_ef_sc_hd__decap_12 abstract view
.subckt sky130_ef_sc_hd__decap_12 VPWR VGND VPB VNB
.ends

* Black-box entry subcircuit for sky130_fd_sc_hd__dfrtp_1 abstract view
.subckt sky130_fd_sc_hd__dfrtp_1 CLK D RESET_B VGND VNB VPB VPWR Q
.ends

* Black-box entry subcircuit for sky130_fd_sc_hd__decap_4 abstract view
.subckt sky130_fd_sc_hd__decap_4 VGND VNB VPB VPWR
.ends

* Black-box entry subcircuit for sky130_fd_sc_hd__clkbuf_1 abstract view
.subckt sky130_fd_sc_hd__clkbuf_1 A VGND VNB VPB VPWR X
.ends

* Black-box entry subcircuit for sky130_fd_sc_hd__clkbuf_8 abstract view
.subckt sky130_fd_sc_hd__clkbuf_8 A VGND VNB VPB VPWR X
.ends

* Black-box entry subcircuit for sky130_fd_sc_hd__mux2_1 abstract view
.subckt sky130_fd_sc_hd__mux2_1 A0 A1 S VGND VNB VPB VPWR X
.ends

* Black-box entry subcircuit for sky130_fd_sc_hd__fill_2 abstract view
.subckt sky130_fd_sc_hd__fill_2 VGND VNB VPB VPWR
.ends

* Black-box entry subcircuit for sky130_fd_sc_hd__dfxtp_1 abstract view
.subckt sky130_fd_sc_hd__dfxtp_1 CLK D VGND VNB VPB VPWR Q
.ends

* Black-box entry subcircuit for sky130_fd_sc_hd__inv_2 abstract view
.subckt sky130_fd_sc_hd__inv_2 A VGND VNB VPB VPWR Y
.ends

* Black-box entry subcircuit for sky130_fd_sc_hd__dlygate4sd3_1 abstract view
.subckt sky130_fd_sc_hd__dlygate4sd3_1 A VGND VNB VPB VPWR X
.ends

* Black-box entry subcircuit for sky130_fd_sc_hd__and3_1 abstract view
.subckt sky130_fd_sc_hd__and3_1 A B C VGND VNB VPB VPWR X
.ends

* Black-box entry subcircuit for sky130_fd_sc_hd__clkbuf_4 abstract view
.subckt sky130_fd_sc_hd__clkbuf_4 A VGND VNB VPB VPWR X
.ends

* Black-box entry subcircuit for sky130_fd_sc_hd__nand2_1 abstract view
.subckt sky130_fd_sc_hd__nand2_1 A B VGND VNB VPB VPWR Y
.ends

* Black-box entry subcircuit for sky130_fd_sc_hd__decap_6 abstract view
.subckt sky130_fd_sc_hd__decap_6 VGND VNB VPB VPWR
.ends

* Black-box entry subcircuit for sky130_fd_sc_hd__decap_8 abstract view
.subckt sky130_fd_sc_hd__decap_8 VGND VNB VPB VPWR
.ends

* Black-box entry subcircuit for sky130_fd_sc_hd__and2_1 abstract view
.subckt sky130_fd_sc_hd__and2_1 A B VGND VNB VPB VPWR X
.ends

* Black-box entry subcircuit for sky130_fd_sc_hd__buf_2 abstract view
.subckt sky130_fd_sc_hd__buf_2 A VGND VNB VPB VPWR X
.ends

* Black-box entry subcircuit for sky130_fd_sc_hd__and4b_1 abstract view
.subckt sky130_fd_sc_hd__and4b_1 A_N B C D VGND VNB VPB VPWR X
.ends

* Black-box entry subcircuit for sky130_fd_sc_hd__o31a_1 abstract view
.subckt sky130_fd_sc_hd__o31a_1 A1 A2 A3 B1 VGND VNB VPB VPWR X
.ends

* Black-box entry subcircuit for sky130_fd_sc_hd__a21o_1 abstract view
.subckt sky130_fd_sc_hd__a21o_1 A1 A2 B1 VGND VNB VPB VPWR X
.ends

* Black-box entry subcircuit for sky130_fd_sc_hd__nor2_1 abstract view
.subckt sky130_fd_sc_hd__nor2_1 A B VGND VNB VPB VPWR Y
.ends

* Black-box entry subcircuit for sky130_fd_sc_hd__or2_1 abstract view
.subckt sky130_fd_sc_hd__or2_1 A B VGND VNB VPB VPWR X
.ends

* Black-box entry subcircuit for sky130_fd_sc_hd__a22o_1 abstract view
.subckt sky130_fd_sc_hd__a22o_1 A1 A2 B1 B2 VGND VNB VPB VPWR X
.ends

* Black-box entry subcircuit for sky130_fd_sc_hd__a21bo_1 abstract view
.subckt sky130_fd_sc_hd__a21bo_1 A1 A2 B1_N VGND VNB VPB VPWR X
.ends

* Black-box entry subcircuit for sky130_fd_sc_hd__nor2_2 abstract view
.subckt sky130_fd_sc_hd__nor2_2 A B VGND VNB VPB VPWR Y
.ends

* Black-box entry subcircuit for sky130_fd_sc_hd__a221o_1 abstract view
.subckt sky130_fd_sc_hd__a221o_1 A1 A2 B1 B2 C1 VGND VNB VPB VPWR X
.ends

* Black-box entry subcircuit for sky130_fd_sc_hd__or4_1 abstract view
.subckt sky130_fd_sc_hd__or4_1 A B C D VGND VNB VPB VPWR X
.ends

* Black-box entry subcircuit for sky130_fd_sc_hd__dfrtp_2 abstract view
.subckt sky130_fd_sc_hd__dfrtp_2 CLK D RESET_B VGND VNB VPB VPWR Q
.ends

* Black-box entry subcircuit for sky130_fd_sc_hd__buf_4 abstract view
.subckt sky130_fd_sc_hd__buf_4 A VGND VNB VPB VPWR X
.ends

* Black-box entry subcircuit for sky130_fd_sc_hd__and4_1 abstract view
.subckt sky130_fd_sc_hd__and4_1 A B C D VGND VNB VPB VPWR X
.ends

* Black-box entry subcircuit for sky130_fd_sc_hd__xnor2_1 abstract view
.subckt sky130_fd_sc_hd__xnor2_1 A B VGND VNB VPB VPWR Y
.ends

* Black-box entry subcircuit for sky130_fd_sc_hd__clkbuf_16 abstract view
.subckt sky130_fd_sc_hd__clkbuf_16 A VGND VNB VPB VPWR X
.ends

* Black-box entry subcircuit for sky130_fd_sc_hd__or4_4 abstract view
.subckt sky130_fd_sc_hd__or4_4 A B C D VGND VNB VPB VPWR X
.ends

* Black-box entry subcircuit for sky130_fd_sc_hd__and4bb_4 abstract view
.subckt sky130_fd_sc_hd__and4bb_4 A_N B_N C D VGND VNB VPB VPWR X
.ends

* Black-box entry subcircuit for sky130_fd_sc_hd__and4b_4 abstract view
.subckt sky130_fd_sc_hd__and4b_4 A_N B C D VGND VNB VPB VPWR X
.ends

* Black-box entry subcircuit for sky130_fd_sc_hd__nor4b_1 abstract view
.subckt sky130_fd_sc_hd__nor4b_1 A B C D_N VGND VNB VPB VPWR Y
.ends

* Black-box entry subcircuit for sky130_fd_sc_hd__and2_2 abstract view
.subckt sky130_fd_sc_hd__and2_2 A B VGND VNB VPB VPWR X
.ends

* Black-box entry subcircuit for sky130_fd_sc_hd__dfrtp_4 abstract view
.subckt sky130_fd_sc_hd__dfrtp_4 CLK D RESET_B VGND VNB VPB VPWR Q
.ends

* Black-box entry subcircuit for sky130_fd_sc_hd__and2b_1 abstract view
.subckt sky130_fd_sc_hd__and2b_1 A_N B VGND VNB VPB VPWR X
.ends

* Black-box entry subcircuit for sky130_fd_sc_hd__clkbuf_2 abstract view
.subckt sky130_fd_sc_hd__clkbuf_2 A VGND VNB VPB VPWR X
.ends

* Black-box entry subcircuit for sky130_fd_sc_hd__a21boi_1 abstract view
.subckt sky130_fd_sc_hd__a21boi_1 A1 A2 B1_N VGND VNB VPB VPWR Y
.ends

* Black-box entry subcircuit for sky130_fd_sc_hd__nor4_1 abstract view
.subckt sky130_fd_sc_hd__nor4_1 A B C D VGND VNB VPB VPWR Y
.ends

* Black-box entry subcircuit for sky130_fd_sc_hd__buf_1 abstract view
.subckt sky130_fd_sc_hd__buf_1 A VGND VNB VPB VPWR X
.ends

* Black-box entry subcircuit for sky130_fd_sc_hd__o21a_1 abstract view
.subckt sky130_fd_sc_hd__o21a_1 A1 A2 B1 VGND VNB VPB VPWR X
.ends

* Black-box entry subcircuit for sky130_fd_sc_hd__dlymetal6s2s_1 abstract view
.subckt sky130_fd_sc_hd__dlymetal6s2s_1 A VGND VNB VPB VPWR X
.ends

* Black-box entry subcircuit for sky130_fd_sc_hd__nor3_1 abstract view
.subckt sky130_fd_sc_hd__nor3_1 A B C VGND VNB VPB VPWR Y
.ends

* Black-box entry subcircuit for sky130_fd_sc_hd__xor2_1 abstract view
.subckt sky130_fd_sc_hd__xor2_1 A B VGND VNB VPB VPWR X
.ends

* Black-box entry subcircuit for sky130_fd_sc_hd__a21boi_4 abstract view
.subckt sky130_fd_sc_hd__a21boi_4 A1 A2 B1_N VGND VNB VPB VPWR Y
.ends

* Black-box entry subcircuit for sky130_fd_sc_hd__xnor2_4 abstract view
.subckt sky130_fd_sc_hd__xnor2_4 A B VGND VNB VPB VPWR Y
.ends

* Black-box entry subcircuit for sky130_fd_sc_hd__and4_2 abstract view
.subckt sky130_fd_sc_hd__and4_2 A B C D VGND VNB VPB VPWR X
.ends

* Black-box entry subcircuit for sky130_fd_sc_hd__a21oi_1 abstract view
.subckt sky130_fd_sc_hd__a21oi_1 A1 A2 B1 VGND VNB VPB VPWR Y
.ends

* Black-box entry subcircuit for sky130_fd_sc_hd__o2bb2a_1 abstract view
.subckt sky130_fd_sc_hd__o2bb2a_1 A1_N A2_N B1 B2 VGND VNB VPB VPWR X
.ends

* Black-box entry subcircuit for sky130_fd_sc_hd__or3_1 abstract view
.subckt sky130_fd_sc_hd__or3_1 A B C VGND VNB VPB VPWR X
.ends

.subckt fifo VGND VPWR clk data_in[0] data_in[1] data_in[2] data_in[3] data_in[4]
+ data_in[5] data_in[6] data_in[7] data_out[0] data_out[1] data_out[2] data_out[3]
+ data_out[4] data_out[5] data_out[6] data_out[7] empty error full pop push rst
XTAP_177 VGND VPWR sky130_fd_sc_hd__tapvpwrvgnd_1
XTAP_188 VGND VPWR sky130_fd_sc_hd__tapvpwrvgnd_1
XTAP_199 VGND VPWR sky130_fd_sc_hd__tapvpwrvgnd_1
XFILLER_0_4_193 VGND VGND VPWR VPWR sky130_fd_sc_hd__decap_3
XFILLER_0_55_317 VGND VGND VPWR VPWR sky130_fd_sc_hd__fill_1
XFILLER_0_48_15 VPWR VGND VPWR VGND sky130_ef_sc_hd__decap_12
XFILLER_0_3_39 VPWR VGND VPWR VGND sky130_ef_sc_hd__decap_12
X_0985_ clknet_4_2_0_clk _0025_ _0006_ VGND VGND VPWR VPWR net16 sky130_fd_sc_hd__dfrtp_1
XFILLER_0_1_163 VGND VGND VPWR VPWR sky130_fd_sc_hd__fill_1
XFILLER_0_1_196 VPWR VGND VPWR VGND sky130_ef_sc_hd__decap_12
XFILLER_0_49_111 VGND VGND VPWR VPWR sky130_fd_sc_hd__fill_1
XFILLER_0_52_309 VPWR VGND VPWR VGND sky130_ef_sc_hd__decap_12
XFILLER_0_9_241 VPWR VGND VPWR VGND sky130_ef_sc_hd__decap_12
XFILLER_0_20_217 VPWR VGND VPWR VGND sky130_ef_sc_hd__decap_12
XFILLER_0_18_29 VGND VGND VPWR VPWR sky130_fd_sc_hd__decap_4
XFILLER_0_55_125 VGND VGND VPWR VPWR sky130_fd_sc_hd__decap_4
XFILLER_0_50_27 VGND VGND VPWR VPWR sky130_fd_sc_hd__fill_1
XFILLER_0_55_169 VPWR VGND VPWR VGND sky130_ef_sc_hd__decap_12
X_0770_ _0372_ VGND VGND VPWR VPWR _0072_ sky130_fd_sc_hd__clkbuf_1
Xclkbuf_4_12_0_clk clknet_0_clk VGND VGND VPWR VPWR clknet_4_12_0_clk sky130_fd_sc_hd__clkbuf_8
X_0968_ net145 net3 _0480_ VGND VGND VPWR VPWR _0483_ sky130_fd_sc_hd__mux2_1
X_0899_ _0444_ VGND VGND VPWR VPWR _0129_ sky130_fd_sc_hd__clkbuf_1
XFILLER_0_37_125 VGND VGND VPWR VPWR sky130_fd_sc_hd__fill_2
XFILLER_0_29_39 VPWR VGND VPWR VGND sky130_ef_sc_hd__decap_12
XFILLER_0_45_27 VPWR VGND VPWR VGND sky130_ef_sc_hd__decap_12
XFILLER_0_0_29 VPWR VGND VPWR VGND sky130_ef_sc_hd__decap_12
X_0822_ _0401_ VGND VGND VPWR VPWR _0095_ sky130_fd_sc_hd__clkbuf_1
XFILLER_0_9_27 VPWR VGND VPWR VGND sky130_ef_sc_hd__decap_12
XFILLER_0_16_309 VPWR VGND VPWR VGND sky130_ef_sc_hd__decap_12
XFILLER_0_3_225 VPWR VGND VPWR VGND sky130_ef_sc_hd__decap_12
X_0753_ _0362_ VGND VGND VPWR VPWR _0065_ sky130_fd_sc_hd__clkbuf_1
XFILLER_0_10_41 VGND VGND VPWR VPWR sky130_fd_sc_hd__decap_4
XFILLER_0_10_85 VGND VGND VPWR VPWR sky130_fd_sc_hd__fill_1
X_0684_ net28 _0315_ _0320_ VGND VGND VPWR VPWR _0321_ sky130_fd_sc_hd__mux2_1
XFILLER_0_35_93 VGND VGND VPWR VPWR sky130_fd_sc_hd__decap_3
X_1098_ clknet_4_2_0_clk _0137_ VGND VGND VPWR VPWR fifo\[12\]\[3\] sky130_fd_sc_hd__dfxtp_1
XFILLER_0_19_125 VGND VGND VPWR VPWR sky130_fd_sc_hd__fill_2
XFILLER_0_51_81 VPWR VGND VPWR VGND sky130_ef_sc_hd__decap_12
XFILLER_0_34_139 VGND VGND VPWR VPWR sky130_fd_sc_hd__fill_1
XFILLER_0_19_169 VPWR VGND VPWR VGND sky130_ef_sc_hd__decap_12
XFILLER_0_48_209 VPWR VGND VPWR VGND sky130_ef_sc_hd__decap_12
X_1021_ clknet_4_15_0_clk _0060_ VGND VGND VPWR VPWR fifo\[2\]\[6\] sky130_fd_sc_hd__dfxtp_1
X_0805_ net84 _0324_ _0389_ VGND VGND VPWR VPWR _0392_ sky130_fd_sc_hd__mux2_1
XFILLER_0_12_301 VGND VGND VPWR VPWR sky130_fd_sc_hd__fill_2
X_0667_ _0314_ VGND VGND VPWR VPWR _0009_ sky130_fd_sc_hd__inv_2
X_0598_ _0262_ VGND VGND VPWR VPWR _0025_ sky130_fd_sc_hd__clkbuf_1
X_0736_ net107 _0328_ _0348_ VGND VGND VPWR VPWR _0353_ sky130_fd_sc_hd__mux2_1
XFILLER_0_34_3 VPWR VGND VPWR VGND sky130_ef_sc_hd__decap_12
Xhold63 fifo\[9\]\[2\] VGND VGND VPWR VPWR net90 sky130_fd_sc_hd__dlygate4sd3_1
Xhold74 fifo\[14\]\[2\] VGND VGND VPWR VPWR net101 sky130_fd_sc_hd__dlygate4sd3_1
Xhold30 fifo\[8\]\[2\] VGND VGND VPWR VPWR net57 sky130_fd_sc_hd__dlygate4sd3_1
Xhold52 fifo\[8\]\[1\] VGND VGND VPWR VPWR net79 sky130_fd_sc_hd__dlygate4sd3_1
Xhold41 fifo\[6\]\[5\] VGND VGND VPWR VPWR net68 sky130_fd_sc_hd__dlygate4sd3_1
Xhold85 fifo\[14\]\[7\] VGND VGND VPWR VPWR net112 sky130_fd_sc_hd__dlygate4sd3_1
Xhold96 fifo\[5\]\[5\] VGND VGND VPWR VPWR net123 sky130_fd_sc_hd__dlygate4sd3_1
XFILLER_0_38_286 VGND VGND VPWR VPWR sky130_fd_sc_hd__fill_1
XFILLER_0_38_253 VGND VGND VPWR VPWR sky130_fd_sc_hd__decap_4
XFILLER_0_38_242 VGND VGND VPWR VPWR sky130_fd_sc_hd__fill_1
X_0521_ head\[2\] _0191_ _0190_ VGND VGND VPWR VPWR _0194_ sky130_fd_sc_hd__and3_1
XTAP_348 VGND VPWR sky130_fd_sc_hd__tapvpwrvgnd_1
XTAP_337 VGND VPWR sky130_fd_sc_hd__tapvpwrvgnd_1
XTAP_326 VGND VPWR sky130_fd_sc_hd__tapvpwrvgnd_1
XTAP_315 VGND VPWR sky130_fd_sc_hd__tapvpwrvgnd_1
XTAP_304 VGND VPWR sky130_fd_sc_hd__tapvpwrvgnd_1
XFILLER_0_21_164 VGND VGND VPWR VPWR sky130_fd_sc_hd__decap_4
XTAP_359 VGND VPWR sky130_fd_sc_hd__tapvpwrvgnd_1
X_1004_ clknet_4_4_0_clk _0043_ VGND VGND VPWR VPWR fifo\[0\]\[5\] sky130_fd_sc_hd__dfxtp_1
XFILLER_0_44_267 VGND VGND VPWR VPWR sky130_fd_sc_hd__fill_1
XFILLER_0_12_153 VPWR VGND VPWR VGND sky130_ef_sc_hd__decap_12
XFILLER_0_12_197 VGND VGND VPWR VPWR sky130_fd_sc_hd__fill_1
X_0719_ net55 _0330_ _0337_ VGND VGND VPWR VPWR _0343_ sky130_fd_sc_hd__mux2_1
XFILLER_0_50_204 VPWR VGND VPWR VGND sky130_ef_sc_hd__decap_12
Xoutput20 net20 VGND VGND VPWR VPWR empty sky130_fd_sc_hd__clkbuf_4
XFILLER_0_53_27 VPWR VGND VPWR VGND sky130_ef_sc_hd__decap_12
XFILLER_0_41_237 VPWR VGND VPWR VGND sky130_ef_sc_hd__decap_12
X_0504_ _0179_ _0180_ VGND VGND VPWR VPWR _0181_ sky130_fd_sc_hd__nand2_1
XTAP_156 VGND VPWR sky130_fd_sc_hd__tapvpwrvgnd_1
XTAP_145 VGND VPWR sky130_fd_sc_hd__tapvpwrvgnd_1
XTAP_134 VGND VPWR sky130_fd_sc_hd__tapvpwrvgnd_1
XTAP_112 VGND VPWR sky130_fd_sc_hd__tapvpwrvgnd_1
XTAP_123 VGND VPWR sky130_fd_sc_hd__tapvpwrvgnd_1
XTAP_167 VGND VPWR sky130_fd_sc_hd__tapvpwrvgnd_1
XTAP_178 VGND VPWR sky130_fd_sc_hd__tapvpwrvgnd_1
XTAP_189 VGND VPWR sky130_fd_sc_hd__tapvpwrvgnd_1
XFILLER_0_27_50 VGND VGND VPWR VPWR sky130_fd_sc_hd__decap_6
XFILLER_0_43_82 VGND VGND VPWR VPWR sky130_fd_sc_hd__decap_8
XFILLER_0_32_215 VGND VGND VPWR VPWR sky130_fd_sc_hd__fill_1
XFILLER_0_17_223 VGND VGND VPWR VPWR sky130_fd_sc_hd__fill_1
XFILLER_0_17_289 VPWR VGND VPWR VGND sky130_ef_sc_hd__decap_12
XFILLER_0_48_27 VGND VGND VPWR VPWR sky130_fd_sc_hd__fill_1
XFILLER_0_46_329 VGND VGND VPWR VPWR sky130_fd_sc_hd__fill_2
XFILLER_0_46_307 VGND VGND VPWR VPWR sky130_fd_sc_hd__fill_1
XFILLER_0_13_63 VGND VGND VPWR VPWR sky130_fd_sc_hd__fill_1
X_0984_ clknet_4_1_0_clk _0024_ _0005_ VGND VGND VPWR VPWR net15 sky130_fd_sc_hd__dfrtp_1
XFILLER_0_14_248 VGND VGND VPWR VPWR sky130_fd_sc_hd__decap_4
XFILLER_0_38_93 VPWR VGND VPWR VGND sky130_ef_sc_hd__decap_12
XFILLER_0_38_60 VPWR VGND VPWR VGND sky130_ef_sc_hd__decap_12
XFILLER_0_49_145 VGND VGND VPWR VPWR sky130_fd_sc_hd__fill_1
XFILLER_0_9_253 VPWR VGND VPWR VGND sky130_ef_sc_hd__decap_12
XFILLER_0_13_281 VGND VGND VPWR VPWR sky130_fd_sc_hd__decap_8
XFILLER_0_20_229 VPWR VGND VPWR VGND sky130_ef_sc_hd__decap_12
XFILLER_0_34_29 VPWR VGND VPWR VGND sky130_ef_sc_hd__decap_12
XFILLER_0_28_318 VGND VGND VPWR VPWR sky130_fd_sc_hd__decap_3
XFILLER_0_42_321 VGND VGND VPWR VPWR sky130_fd_sc_hd__decap_8
X_0967_ _0482_ VGND VGND VPWR VPWR _0159_ sky130_fd_sc_hd__clkbuf_1
XFILLER_0_49_81 VPWR VGND VPWR VGND sky130_ef_sc_hd__decap_12
X_0898_ net128 net4 _0440_ VGND VGND VPWR VPWR _0444_ sky130_fd_sc_hd__mux2_1
XFILLER_0_37_148 VGND VGND VPWR VPWR sky130_fd_sc_hd__decap_8
XFILLER_0_45_39 VPWR VGND VPWR VGND sky130_ef_sc_hd__decap_12
X_0821_ net141 _0322_ _0399_ VGND VGND VPWR VPWR _0401_ sky130_fd_sc_hd__mux2_1
X_0752_ net134 _0326_ _0358_ VGND VGND VPWR VPWR _0362_ sky130_fd_sc_hd__mux2_1
XFILLER_0_9_39 VGND VGND VPWR VPWR sky130_fd_sc_hd__decap_8
XFILLER_0_24_321 VGND VGND VPWR VPWR sky130_fd_sc_hd__decap_8
X_0683_ _0319_ VGND VGND VPWR VPWR _0320_ sky130_fd_sc_hd__clkbuf_4
XFILLER_0_3_237 VPWR VGND VPWR VGND sky130_ef_sc_hd__decap_12
X_1097_ clknet_4_8_0_clk _0136_ VGND VGND VPWR VPWR fifo\[12\]\[2\] sky130_fd_sc_hd__dfxtp_1
XFILLER_0_51_93 VPWR VGND VPWR VGND sky130_ef_sc_hd__decap_12
XFILLER_0_42_195 VGND VGND VPWR VPWR sky130_fd_sc_hd__fill_1
XFILLER_0_25_118 VPWR VGND VPWR VGND sky130_ef_sc_hd__decap_12
Xclkbuf_4_11_0_clk clknet_0_clk VGND VGND VPWR VPWR clknet_4_11_0_clk sky130_fd_sc_hd__clkbuf_8
X_1020_ clknet_4_11_0_clk _0059_ VGND VGND VPWR VPWR fifo\[2\]\[5\] sky130_fd_sc_hd__dfxtp_1
XFILLER_0_8_307 VGND VGND VPWR VPWR sky130_fd_sc_hd__fill_1
XFILLER_0_8_329 VGND VGND VPWR VPWR sky130_fd_sc_hd__fill_2
X_0804_ _0391_ VGND VGND VPWR VPWR _0087_ sky130_fd_sc_hd__clkbuf_1
X_0735_ _0352_ VGND VGND VPWR VPWR _0057_ sky130_fd_sc_hd__clkbuf_1
XFILLER_0_16_107 VGND VGND VPWR VPWR sky130_fd_sc_hd__decap_8
XFILLER_0_21_52 VGND VGND VPWR VPWR sky130_fd_sc_hd__fill_1
XFILLER_0_21_63 VGND VGND VPWR VPWR sky130_fd_sc_hd__fill_1
XFILLER_0_24_195 VGND VGND VPWR VPWR sky130_fd_sc_hd__fill_1
X_0666_ _0314_ VGND VGND VPWR VPWR _0008_ sky130_fd_sc_hd__inv_2
X_0597_ net16 _0261_ _0172_ VGND VGND VPWR VPWR _0262_ sky130_fd_sc_hd__mux2_1
XFILLER_0_46_71 VPWR VGND VPWR VGND sky130_ef_sc_hd__decap_12
XFILLER_0_1_51 VGND VGND VPWR VPWR sky130_fd_sc_hd__decap_4
XFILLER_0_27_3 VPWR VGND VPWR VGND sky130_ef_sc_hd__decap_12
XFILLER_0_47_243 VPWR VGND VPWR VGND sky130_ef_sc_hd__decap_12
XFILLER_0_30_176 VGND VGND VPWR VPWR sky130_fd_sc_hd__decap_3
XFILLER_0_15_151 VPWR VGND VPWR VGND sky130_ef_sc_hd__decap_12
Xhold75 fifo\[7\]\[6\] VGND VGND VPWR VPWR net102 sky130_fd_sc_hd__dlygate4sd3_1
Xhold20 fifo\[8\]\[7\] VGND VGND VPWR VPWR net47 sky130_fd_sc_hd__dlygate4sd3_1
Xhold53 fifo\[6\]\[4\] VGND VGND VPWR VPWR net80 sky130_fd_sc_hd__dlygate4sd3_1
Xhold86 fifo\[12\]\[3\] VGND VGND VPWR VPWR net113 sky130_fd_sc_hd__dlygate4sd3_1
Xhold31 fifo\[12\]\[1\] VGND VGND VPWR VPWR net58 sky130_fd_sc_hd__dlygate4sd3_1
Xhold64 fifo\[14\]\[1\] VGND VGND VPWR VPWR net91 sky130_fd_sc_hd__dlygate4sd3_1
Xhold97 fifo\[13\]\[3\] VGND VGND VPWR VPWR net124 sky130_fd_sc_hd__dlygate4sd3_1
Xhold42 fifo\[2\]\[5\] VGND VGND VPWR VPWR net69 sky130_fd_sc_hd__dlygate4sd3_1
XFILLER_0_42_29 VGND VGND VPWR VPWR sky130_fd_sc_hd__fill_2
XFILLER_0_38_265 VGND VGND VPWR VPWR sky130_fd_sc_hd__decap_4
XFILLER_0_53_279 VGND VGND VPWR VPWR sky130_fd_sc_hd__fill_1
XFILLER_0_21_110 VGND VGND VPWR VPWR sky130_fd_sc_hd__fill_2
X_0520_ _0191_ _0192_ VGND VGND VPWR VPWR _0193_ sky130_fd_sc_hd__and2_1
XTAP_349 VGND VPWR sky130_fd_sc_hd__tapvpwrvgnd_1
XTAP_338 VGND VPWR sky130_fd_sc_hd__tapvpwrvgnd_1
XTAP_327 VGND VPWR sky130_fd_sc_hd__tapvpwrvgnd_1
XTAP_316 VGND VPWR sky130_fd_sc_hd__tapvpwrvgnd_1
XTAP_305 VGND VPWR sky130_fd_sc_hd__tapvpwrvgnd_1
XFILLER_0_6_29 VPWR VGND VPWR VGND sky130_ef_sc_hd__decap_12
X_1003_ clknet_4_6_0_clk _0042_ VGND VGND VPWR VPWR fifo\[0\]\[4\] sky130_fd_sc_hd__dfxtp_1
X_0718_ _0342_ VGND VGND VPWR VPWR _0050_ sky130_fd_sc_hd__clkbuf_1
XFILLER_0_4_321 VGND VGND VPWR VPWR sky130_fd_sc_hd__decap_8
XFILLER_0_12_165 VGND VGND VPWR VPWR sky130_fd_sc_hd__decap_6
X_0649_ net12 _0309_ _0172_ VGND VGND VPWR VPWR _0310_ sky130_fd_sc_hd__mux2_1
XFILLER_0_50_216 VPWR VGND VPWR VGND sky130_ef_sc_hd__decap_12
XFILLER_0_35_246 VGND VGND VPWR VPWR sky130_fd_sc_hd__fill_2
XFILLER_0_7_192 VGND VGND VPWR VPWR sky130_fd_sc_hd__fill_2
Xoutput21 net21 VGND VGND VPWR VPWR error sky130_fd_sc_hd__clkbuf_4
XFILLER_0_53_39 VPWR VGND VPWR VGND sky130_ef_sc_hd__decap_12
XFILLER_0_41_249 VGND VGND VPWR VPWR sky130_fd_sc_hd__fill_2
XFILLER_0_34_290 VGND VGND VPWR VPWR sky130_fd_sc_hd__decap_3
X_0503_ tail\[0\] VGND VGND VPWR VPWR _0180_ sky130_fd_sc_hd__buf_2
XTAP_157 VGND VPWR sky130_fd_sc_hd__tapvpwrvgnd_1
XTAP_146 VGND VPWR sky130_fd_sc_hd__tapvpwrvgnd_1
XTAP_135 VGND VPWR sky130_fd_sc_hd__tapvpwrvgnd_1
XTAP_113 VGND VPWR sky130_fd_sc_hd__tapvpwrvgnd_1
XTAP_124 VGND VPWR sky130_fd_sc_hd__tapvpwrvgnd_1
XTAP_168 VGND VPWR sky130_fd_sc_hd__tapvpwrvgnd_1
XTAP_179 VGND VPWR sky130_fd_sc_hd__tapvpwrvgnd_1
XFILLER_0_49_305 VPWR VGND VPWR VGND sky130_ef_sc_hd__decap_12
XFILLER_0_32_238 VGND VGND VPWR VPWR sky130_fd_sc_hd__decap_8
XFILLER_0_32_205 VGND VGND VPWR VPWR sky130_fd_sc_hd__fill_2
XFILLER_0_17_279 VGND VGND VPWR VPWR sky130_fd_sc_hd__fill_1
XFILLER_0_31_271 VGND VGND VPWR VPWR sky130_fd_sc_hd__decap_4
XFILLER_0_23_238 VPWR VGND VPWR VGND sky130_ef_sc_hd__decap_12
X_0983_ clknet_4_0_0_clk _0023_ _0004_ VGND VGND VPWR VPWR net14 sky130_fd_sc_hd__dfrtp_1
XFILLER_0_13_31 VPWR VGND VPWR VGND sky130_ef_sc_hd__decap_12
XFILLER_0_38_72 VPWR VGND VPWR VGND sky130_ef_sc_hd__decap_12
XFILLER_0_49_113 VPWR VGND VPWR VGND sky130_ef_sc_hd__decap_12
XFILLER_0_9_265 VPWR VGND VPWR VGND sky130_ef_sc_hd__decap_12
XFILLER_0_50_29 VPWR VGND VPWR VGND sky130_ef_sc_hd__decap_12
XFILLER_0_24_41 VPWR VGND VPWR VGND sky130_ef_sc_hd__decap_12
X_0966_ net86 net2 _0480_ VGND VGND VPWR VPWR _0482_ sky130_fd_sc_hd__mux2_1
X_0897_ _0443_ VGND VGND VPWR VPWR _0128_ sky130_fd_sc_hd__clkbuf_1
XFILLER_0_49_93 VPWR VGND VPWR VGND sky130_ef_sc_hd__decap_12
XFILLER_0_37_138 VGND VGND VPWR VPWR sky130_fd_sc_hd__decap_4
XFILLER_0_33_322 VGND VGND VPWR VPWR sky130_fd_sc_hd__decap_8
XFILLER_0_18_330 VGND VGND VPWR VPWR sky130_fd_sc_hd__fill_1
XFILLER_0_28_127 VGND VGND VPWR VPWR sky130_fd_sc_hd__decap_4
XFILLER_0_3_249 VPWR VGND VPWR VGND sky130_ef_sc_hd__decap_12
XFILLER_0_3_205 VPWR VGND VPWR VGND sky130_ef_sc_hd__decap_12
X_0751_ _0361_ VGND VGND VPWR VPWR _0064_ sky130_fd_sc_hd__clkbuf_1
X_0820_ _0400_ VGND VGND VPWR VPWR _0094_ sky130_fd_sc_hd__clkbuf_1
XFILLER_0_24_300 VGND VGND VPWR VPWR sky130_fd_sc_hd__decap_8
X_0682_ _0196_ _0316_ _0317_ _0318_ VGND VGND VPWR VPWR _0319_ sky130_fd_sc_hd__and4b_1
X_1096_ clknet_4_10_0_clk _0135_ VGND VGND VPWR VPWR fifo\[12\]\[1\] sky130_fd_sc_hd__dfxtp_1
XFILLER_0_19_105 VGND VGND VPWR VPWR sky130_fd_sc_hd__decap_6
XFILLER_0_42_141 VPWR VGND VPWR VGND sky130_ef_sc_hd__decap_12
X_0949_ _0472_ VGND VGND VPWR VPWR _0151_ sky130_fd_sc_hd__clkbuf_1
X_0665_ _0314_ VGND VGND VPWR VPWR _0007_ sky130_fd_sc_hd__inv_2
XFILLER_0_12_325 VGND VGND VPWR VPWR sky130_fd_sc_hd__decap_6
X_0734_ net67 _0326_ _0348_ VGND VGND VPWR VPWR _0352_ sky130_fd_sc_hd__mux2_1
X_0803_ net94 _0322_ _0389_ VGND VGND VPWR VPWR _0391_ sky130_fd_sc_hd__mux2_1
XFILLER_0_24_141 VPWR VGND VPWR VGND sky130_ef_sc_hd__decap_12
X_0596_ _0255_ _0257_ _0259_ _0260_ VGND VGND VPWR VPWR _0261_ sky130_fd_sc_hd__o31a_1
XFILLER_0_47_222 VGND VGND VPWR VPWR sky130_fd_sc_hd__fill_2
XFILLER_0_46_83 VGND VGND VPWR VPWR sky130_fd_sc_hd__fill_1
XFILLER_0_1_85 VGND VGND VPWR VPWR sky130_fd_sc_hd__fill_1
X_1079_ clknet_4_1_0_clk _0118_ VGND VGND VPWR VPWR fifo\[10\]\[0\] sky130_fd_sc_hd__dfxtp_1
XFILLER_0_47_255 VPWR VGND VPWR VGND sky130_ef_sc_hd__decap_12
XFILLER_0_15_163 VGND VGND VPWR VPWR sky130_fd_sc_hd__decap_4
Xhold65 fifo\[13\]\[7\] VGND VGND VPWR VPWR net92 sky130_fd_sc_hd__dlygate4sd3_1
Xhold98 fifo\[1\]\[4\] VGND VGND VPWR VPWR net125 sky130_fd_sc_hd__dlygate4sd3_1
Xhold43 fifo\[7\]\[7\] VGND VGND VPWR VPWR net70 sky130_fd_sc_hd__dlygate4sd3_1
Xhold10 fifo\[14\]\[4\] VGND VGND VPWR VPWR net37 sky130_fd_sc_hd__dlygate4sd3_1
Xhold21 fifo\[4\]\[4\] VGND VGND VPWR VPWR net48 sky130_fd_sc_hd__dlygate4sd3_1
Xhold54 fifo\[5\]\[2\] VGND VGND VPWR VPWR net81 sky130_fd_sc_hd__dlygate4sd3_1
Xhold76 fifo\[2\]\[1\] VGND VGND VPWR VPWR net103 sky130_fd_sc_hd__dlygate4sd3_1
Xhold32 fifo\[4\]\[0\] VGND VGND VPWR VPWR net59 sky130_fd_sc_hd__dlygate4sd3_1
Xhold87 fifo\[10\]\[7\] VGND VGND VPWR VPWR net114 sky130_fd_sc_hd__dlygate4sd3_1
XFILLER_0_53_225 VPWR VGND VPWR VGND sky130_ef_sc_hd__decap_12
XFILLER_0_21_122 VGND VGND VPWR VPWR sky130_fd_sc_hd__fill_1
XTAP_339 VGND VPWR sky130_fd_sc_hd__tapvpwrvgnd_1
XTAP_328 VGND VPWR sky130_fd_sc_hd__tapvpwrvgnd_1
XTAP_317 VGND VPWR sky130_fd_sc_hd__tapvpwrvgnd_1
XTAP_306 VGND VPWR sky130_fd_sc_hd__tapvpwrvgnd_1
X_1002_ clknet_4_0_0_clk _0041_ VGND VGND VPWR VPWR fifo\[0\]\[3\] sky130_fd_sc_hd__dfxtp_1
XFILLER_0_8_105 VPWR VGND VPWR VGND sky130_ef_sc_hd__decap_12
XFILLER_0_8_138 VGND VGND VPWR VPWR sky130_fd_sc_hd__fill_2
XFILLER_0_29_299 VGND VGND VPWR VPWR sky130_fd_sc_hd__decap_4
X_0717_ net125 _0328_ _0337_ VGND VGND VPWR VPWR _0342_ sky130_fd_sc_hd__mux2_1
X_0648_ _0303_ _0305_ _0307_ _0308_ VGND VGND VPWR VPWR _0309_ sky130_fd_sc_hd__o31a_1
X_0579_ fifo\[4\]\[5\] _0212_ _0244_ VGND VGND VPWR VPWR _0245_ sky130_fd_sc_hd__a21o_1
XFILLER_0_50_228 VPWR VGND VPWR VGND sky130_ef_sc_hd__decap_12
XFILLER_0_35_225 VPWR VGND VPWR VGND sky130_ef_sc_hd__decap_12
Xclkbuf_4_10_0_clk clknet_0_clk VGND VGND VPWR VPWR clknet_4_10_0_clk sky130_fd_sc_hd__clkbuf_8
Xoutput22 net22 VGND VGND VPWR VPWR full sky130_fd_sc_hd__clkbuf_4
XFILLER_0_9_3 VPWR VGND VPWR VGND sky130_ef_sc_hd__decap_12
X_0502_ tail\[1\] VGND VGND VPWR VPWR _0179_ sky130_fd_sc_hd__buf_2
XTAP_114 VGND VPWR sky130_fd_sc_hd__tapvpwrvgnd_1
XTAP_158 VGND VPWR sky130_fd_sc_hd__tapvpwrvgnd_1
XTAP_147 VGND VPWR sky130_fd_sc_hd__tapvpwrvgnd_1
XTAP_136 VGND VPWR sky130_fd_sc_hd__tapvpwrvgnd_1
XTAP_125 VGND VPWR sky130_fd_sc_hd__tapvpwrvgnd_1
XTAP_169 VGND VPWR sky130_fd_sc_hd__tapvpwrvgnd_1
XFILLER_0_49_317 VPWR VGND VPWR VGND sky130_ef_sc_hd__decap_12
XFILLER_0_4_185 VGND VGND VPWR VPWR sky130_fd_sc_hd__decap_8
XFILLER_0_4_174 VGND VGND VPWR VPWR sky130_fd_sc_hd__decap_8
XFILLER_0_4_141 VPWR VGND VPWR VGND sky130_ef_sc_hd__decap_12
XFILLER_0_4_130 VGND VGND VPWR VPWR sky130_fd_sc_hd__fill_1
XFILLER_0_17_269 VGND VGND VPWR VPWR sky130_fd_sc_hd__decap_3
XFILLER_0_40_294 VGND VGND VPWR VPWR sky130_fd_sc_hd__fill_2
XFILLER_0_55_309 VGND VGND VPWR VPWR sky130_fd_sc_hd__decap_8
XFILLER_0_48_29 VPWR VGND VPWR VGND sky130_ef_sc_hd__decap_12
XFILLER_0_23_228 VGND VGND VPWR VPWR sky130_fd_sc_hd__fill_1
XFILLER_0_46_309 VPWR VGND VPWR VGND sky130_ef_sc_hd__decap_12
X_0982_ clknet_4_2_0_clk _0022_ _0003_ VGND VGND VPWR VPWR net13 sky130_fd_sc_hd__dfrtp_1
XFILLER_0_13_43 VPWR VGND VPWR VGND sky130_ef_sc_hd__decap_12
XFILLER_0_1_133 VGND VGND VPWR VPWR sky130_fd_sc_hd__decap_3
XFILLER_0_54_83 VGND VGND VPWR VPWR sky130_fd_sc_hd__fill_1
XFILLER_0_49_169 VPWR VGND VPWR VGND sky130_ef_sc_hd__decap_12
XFILLER_0_49_125 VPWR VGND VPWR VGND sky130_ef_sc_hd__decap_12
XFILLER_0_9_277 VGND VGND VPWR VPWR sky130_fd_sc_hd__decap_3
XFILLER_0_55_139 VGND VGND VPWR VPWR sky130_fd_sc_hd__fill_1
XFILLER_0_24_53 VGND VGND VPWR VPWR sky130_fd_sc_hd__decap_6
XFILLER_0_40_85 VGND VGND VPWR VPWR sky130_fd_sc_hd__decap_4
XFILLER_0_40_41 VGND VGND VPWR VPWR sky130_fd_sc_hd__decap_6
XFILLER_0_6_269 VPWR VGND VPWR VGND sky130_ef_sc_hd__decap_12
X_0896_ net147 net3 _0440_ VGND VGND VPWR VPWR _0443_ sky130_fd_sc_hd__mux2_1
X_0965_ _0481_ VGND VGND VPWR VPWR _0158_ sky130_fd_sc_hd__clkbuf_1
XFILLER_0_4_41 VPWR VGND VPWR VGND sky130_ef_sc_hd__decap_12
XFILLER_0_10_253 VPWR VGND VPWR VGND sky130_ef_sc_hd__decap_12
XFILLER_0_4_96 VGND VGND VPWR VPWR sky130_fd_sc_hd__decap_6
XFILLER_0_28_117 VGND VGND VPWR VPWR sky130_fd_sc_hd__decap_3
XFILLER_0_51_153 VGND VGND VPWR VPWR sky130_fd_sc_hd__decap_4
XFILLER_0_51_142 VGND VGND VPWR VPWR sky130_fd_sc_hd__decap_6
X_0681_ head\[3\] head\[2\] VGND VGND VPWR VPWR _0318_ sky130_fd_sc_hd__nor2_1
XFILLER_0_43_109 VGND VGND VPWR VPWR sky130_fd_sc_hd__decap_3
XFILLER_0_36_161 VGND VGND VPWR VPWR sky130_fd_sc_hd__fill_2
XFILLER_0_3_217 VGND VGND VPWR VPWR sky130_fd_sc_hd__decap_6
X_0750_ net120 _0324_ _0358_ VGND VGND VPWR VPWR _0361_ sky130_fd_sc_hd__mux2_1
XFILLER_0_19_53 VGND VGND VPWR VPWR sky130_fd_sc_hd__decap_3
X_1095_ clknet_4_9_0_clk _0134_ VGND VGND VPWR VPWR fifo\[12\]\[0\] sky130_fd_sc_hd__dfxtp_1
XFILLER_0_51_51 VGND VGND VPWR VPWR sky130_fd_sc_hd__decap_4
X_0948_ net91 net2 _0470_ VGND VGND VPWR VPWR _0472_ sky130_fd_sc_hd__mux2_1
XFILLER_0_42_153 VPWR VGND VPWR VGND sky130_ef_sc_hd__decap_12
X_0879_ _0433_ VGND VGND VPWR VPWR _0120_ sky130_fd_sc_hd__clkbuf_1
XFILLER_0_0_209 VPWR VGND VPWR VGND sky130_ef_sc_hd__decap_12
XFILLER_0_18_194 VGND VGND VPWR VPWR sky130_fd_sc_hd__fill_2
XFILLER_0_8_309 VPWR VGND VPWR VGND sky130_ef_sc_hd__decap_12
X_0802_ _0390_ VGND VGND VPWR VPWR _0086_ sky130_fd_sc_hd__clkbuf_1
X_0664_ _0314_ VGND VGND VPWR VPWR _0006_ sky130_fd_sc_hd__inv_2
X_0733_ _0351_ VGND VGND VPWR VPWR _0056_ sky130_fd_sc_hd__clkbuf_1
XFILLER_0_24_153 VPWR VGND VPWR VGND sky130_ef_sc_hd__decap_12
X_0595_ fifo\[0\]\[4\] _0223_ VGND VGND VPWR VPWR _0260_ sky130_fd_sc_hd__or2_1
X_1078_ clknet_4_13_0_clk _0117_ VGND VGND VPWR VPWR fifo\[9\]\[7\] sky130_fd_sc_hd__dfxtp_1
XFILLER_0_47_278 VGND VGND VPWR VPWR sky130_fd_sc_hd__fill_2
XFILLER_0_47_267 VGND VGND VPWR VPWR sky130_fd_sc_hd__decap_8
Xhold11 fifo\[8\]\[4\] VGND VGND VPWR VPWR net38 sky130_fd_sc_hd__dlygate4sd3_1
Xhold22 fifo\[12\]\[5\] VGND VGND VPWR VPWR net49 sky130_fd_sc_hd__dlygate4sd3_1
Xhold44 fifo\[3\]\[6\] VGND VGND VPWR VPWR net71 sky130_fd_sc_hd__dlygate4sd3_1
Xhold55 fifo\[5\]\[1\] VGND VGND VPWR VPWR net82 sky130_fd_sc_hd__dlygate4sd3_1
Xhold88 fifo\[4\]\[2\] VGND VGND VPWR VPWR net115 sky130_fd_sc_hd__dlygate4sd3_1
Xhold99 fifo\[13\]\[2\] VGND VGND VPWR VPWR net126 sky130_fd_sc_hd__dlygate4sd3_1
Xhold33 fifo\[2\]\[0\] VGND VGND VPWR VPWR net60 sky130_fd_sc_hd__dlygate4sd3_1
Xhold77 fifo\[10\]\[0\] VGND VGND VPWR VPWR net104 sky130_fd_sc_hd__dlygate4sd3_1
Xhold66 fifo\[13\]\[5\] VGND VGND VPWR VPWR net93 sky130_fd_sc_hd__dlygate4sd3_1
XFILLER_0_53_237 VPWR VGND VPWR VGND sky130_ef_sc_hd__decap_12
XTAP_329 VGND VPWR sky130_fd_sc_hd__tapvpwrvgnd_1
XTAP_318 VGND VPWR sky130_fd_sc_hd__tapvpwrvgnd_1
XTAP_307 VGND VPWR sky130_fd_sc_hd__tapvpwrvgnd_1
XFILLER_0_8_117 VPWR VGND VPWR VGND sky130_ef_sc_hd__decap_12
X_1001_ clknet_4_2_0_clk _0040_ VGND VGND VPWR VPWR fifo\[0\]\[2\] sky130_fd_sc_hd__dfxtp_1
XFILLER_0_44_248 VGND VGND VPWR VPWR sky130_fd_sc_hd__decap_4
XFILLER_0_4_301 VGND VGND VPWR VPWR sky130_fd_sc_hd__decap_6
X_0716_ _0341_ VGND VGND VPWR VPWR _0049_ sky130_fd_sc_hd__clkbuf_1
X_0647_ fifo\[0\]\[0\] _0223_ VGND VGND VPWR VPWR _0308_ sky130_fd_sc_hd__or2_1
X_0578_ fifo\[11\]\[5\] _0213_ _0214_ fifo\[13\]\[5\] VGND VGND VPWR VPWR _0244_ sky130_fd_sc_hd__a22o_1
XFILLER_0_32_3 VPWR VGND VPWR VGND sky130_ef_sc_hd__decap_12
XFILLER_0_35_237 VGND VGND VPWR VPWR sky130_fd_sc_hd__decap_6
XFILLER_0_35_204 VPWR VGND VPWR VGND sky130_ef_sc_hd__decap_12
Xoutput12 net12 VGND VGND VPWR VPWR data_out[0] sky130_fd_sc_hd__clkbuf_4
XFILLER_0_5_109 VGND VGND VPWR VPWR sky130_fd_sc_hd__decap_3
X_0501_ _0170_ _0171_ net9 VGND VGND VPWR VPWR _0178_ sky130_fd_sc_hd__a21bo_1
XTAP_148 VGND VPWR sky130_fd_sc_hd__tapvpwrvgnd_1
XTAP_137 VGND VPWR sky130_fd_sc_hd__tapvpwrvgnd_1