*SPEF "ieee 1481-1999"
*DESIGN "fifo"
*DATE "11:11:11 Fri 11 11, 1111"
*VENDOR "OpenRCX"
*PROGRAM "Parallel Extraction"
*VERSION "1.0"
*DESIGN_FLOW "NAME_SCOPE LOCAL" "PIN_CAP NONE"
*DIVIDER /
*DELIMITER :
*BUS_DELIMITER []
*T_UNIT 1 NS
*C_UNIT 1 PF
*R_UNIT 1 OHM
*L_UNIT 1 HENRY

*NAME_MAP
*3 clk
*4 data_in[0]
*5 data_in[1]
*6 data_in[2]
*7 data_in[3]
*8 data_in[4]
*9 data_in[5]
*10 data_in[6]
*11 data_in[7]
*12 data_out[0]
*13 data_out[1]
*14 data_out[2]
*15 data_out[3]
*16 data_out[4]
*17 data_out[5]
*18 data_out[6]
*19 data_out[7]
*20 empty
*21 error
*22 full
*23 pop
*24 push
*25 rst
*26 _0000_
*27 _0001_
*28 _0002_
*29 _0003_
*30 _0004_
*31 _0005_
*32 _0006_
*33 _0007_
*34 _0008_
*35 _0009_
*36 _0010_
*37 _0011_
*38 _0012_
*39 _0013_
*40 _0014_
*41 _0015_
*42 _0016_
*43 _0017_
*44 _0018_
*45 _0019_
*46 _0020_
*47 _0021_
*48 _0022_
*49 _0023_
*50 _0024_
*51 _0025_
*52 _0026_
*53 _0027_
*54 _0028_
*55 _0029_
*56 _0030_
*57 _0031_
*58 _0032_
*59 _0033_
*60 _0034_
*61 _0035_
*62 _0036_
*63 _0037_
*64 _0038_
*65 _0039_
*66 _0040_
*67 _0041_
*68 _0042_
*69 _0043_
*70 _0044_
*71 _0045_
*72 _0046_
*73 _0047_
*74 _0048_
*75 _0049_
*76 _0050_
*77 _0051_
*78 _0052_
*79 _0053_
*80 _0054_
*81 _0055_
*82 _0056_
*83 _0057_
*84 _0058_
*85 _0059_
*86 _0060_
*87 _0061_
*88 _0062_
*89 _0063_
*90 _0064_
*91 _0065_
*92 _0066_
*93 _0067_
*94 _0068_
*95 _0069_
*96 _0070_
*97 _0071_
*98 _0072_
*99 _0073_
*100 _0074_
*101 _0075_
*102 _0076_
*103 _0077_
*104 _0078_
*105 _0079_
*106 _0080_
*107 _0081_
*108 _0082_
*109 _0083_
*110 _0084_
*111 _0085_
*112 _0086_
*113 _0087_
*114 _0088_
*115 _0089_
*116 _0090_
*117 _0091_
*118 _0092_
*119 _0093_
*120 _0094_
*121 _0095_
*122 _0096_
*123 _0097_
*124 _0098_
*125 _0099_
*126 _0100_
*127 _0101_
*128 _0102_
*129 _0103_
*130 _0104_
*131 _0105_
*132 _0106_
*133 _0107_
*134 _0108_
*135 _0109_
*136 _0110_
*137 _0111_
*138 _0112_
*139 _0113_
*140 _0114_
*141 _0115_
*142 _0116_
*143 _0117_
*144 _0118_
*145 _0119_
*146 _0120_
*147 _0121_
*148 _0122_
*149 _0123_
*150 _0124_
*151 _0125_
*152 _0126_
*153 _0127_
*154 _0128_
*155 _0129_
*156 _0130_
*157 _0131_
*158 _0132_
*159 _0133_
*160 _0134_
*161 _0135_
*162 _0136_
*163 _0137_
*164 _0138_
*165 _0139_
*166 _0140_
*167 _0141_
*168 _0142_
*169 _0143_
*170 _0144_
*171 _0145_
*172 _0146_
*173 _0147_
*174 _0148_
*175 _0149_
*176 _0150_
*177 _0151_
*178 _0152_
*179 _0153_
*180 _0154_
*181 _0155_
*182 _0156_
*183 _0157_
*184 _0158_
*185 _0159_
*186 _0160_
*187 _0161_
*188 _0162_
*189 _0163_
*190 _0164_
*191 _0165_
*192 _0166_
*193 _0167_
*194 _0168_
*195 _0169_
*196 _0170_
*197 _0171_
*198 _0172_
*199 _0173_
*200 _0174_
*201 _0175_
*202 _0176_
*203 _0177_
*204 _0178_
*205 _0179_
*206 _0180_
*207 _0181_
*208 _0182_
*209 _0183_
*210 _0184_
*211 _0185_
*212 _0186_
*213 _0187_
*214 _0188_
*215 _0189_
*216 _0190_
*217 _0191_
*218 _0192_
*219 _0193_
*220 _0194_
*221 _0195_
*222 _0196_
*223 _0197_
*224 _0198_
*225 _0199_
*226 _0200_
*227 _0201_
*228 _0202_
*229 _0203_
*230 _0204_
*231 _0205_
*232 _0206_
*233 _0207_
*234 _0208_
*235 _0209_
*236 _0210_
*237 _0211_
*238 _0212_
*239 _0213_
*240 _0214_
*241 _0215_
*242 _0216_
*243 _0217_
*244 _0218_
*245 _0219_
*246 _0220_
*247 _0221_
*248 _0222_
*249 _0223_
*250 _0224_
*251 _0225_
*252 _0226_
*253 _0227_
*254 _0228_
*255 _0229_
*256 _0230_
*257 _0231_
*258 _0232_
*259 _0233_
*260 _0234_
*261 _0235_
*262 _0236_
*263 _0237_
*264 _0238_
*265 _0239_
*266 _0240_
*267 _0241_
*268 _0242_
*269 _0243_
*270 _0244_
*271 _0245_
*272 _0246_
*273 _0247_
*274 _0248_
*275 _0249_
*276 _0250_
*277 _0251_
*278 _0252_
*279 _0253_
*280 _0254_
*281 _0255_
*282 _0256_
*283 _0257_
*284 _0258_
*285 _0259_
*286 _0260_
*287 _0261_
*288 _0262_
*289 _0263_
*290 _0264_
*291 _0265_
*292 _0266_
*293 _0267_
*294 _0268_
*295 _0269_
*296 _0270_
*297 _0271_
*298 _0272_
*299 _0273_
*300 _0274_
*301 _0275_
*302 _0276_
*303 _0277_
*304 _0278_
*305 _0279_
*306 _0280_
*307 _0281_
*308 _0282_
*309 _0283_
*310 _0284_
*311 _0285_
*312 _0286_
*313 _0287_
*314 _0288_
*315 _0289_
*316 _0290_
*317 _0291_
*318 _0292_
*319 _0293_
*320 _0294_
*321 _0295_
*322 _0296_
*323 _0297_
*324 _0298_
*325 _0299_
*326 _0300_
*327 _0301_
*328 _0302_
*329 _0303_
*330 _0304_
*331 _0305_
*332 _0306_
*333 _0307_
*334 _0308_
*335 _0309_
*336 _0310_
*337 _0311_
*338 _0312_
*339 _0313_
*340 _0314_
*341 _0315_
*342 _0316_
*343 _0317_
*344 _0318_
*345 _0319_
*346 _0320_
*347 _0321_
*348 _0322_
*349 _0323_
*350 _0324_
*351 _0325_
*352 _0326_
*353 _0327_
*354 _0328_
*355 _0329_
*356 _0330_
*357 _0331_
*358 _0332_
*359 _0333_
*360 _0334_
*361 _0335_
*362 _0336_
*363 _0337_
*364 _0338_
*365 _0339_
*366 _0340_
*367 _0341_
*368 _0342_
*369 _0343_
*370 _0344_
*371 _0345_
*372 _0346_
*373 _0347_
*374 _0348_
*375 _0349_
*376 _0350_
*377 _0351_
*378 _0352_
*379 _0353_
*380 _0354_
*381 _0355_
*382 _0356_
*383 _0357_
*384 _0358_
*385 _0359_
*386 _0360_
*387 _0361_
*388 _0362_
*389 _0363_
*390 _0364_
*391 _0365_
*392 _0366_
*393 _0367_
*394 _0368_
*395 _0369_
*396 _0370_
*397 _0371_
*398 _0372_
*399 _0373_
*400 _0374_
*401 _0375_
*402 _0376_
*403 _0377_
*404 _0378_
*405 _0379_
*406 _0380_
*407 _0381_
*408 _0382_
*409 _0383_
*410 _0384_
*411 _0385_
*412 _0386_
*413 _0387_
*414 _0388_
*415 _0389_
*416 _0390_
*417 _0391_
*418 _0392_
*419 _0393_
*420 _0394_
*421 _0395_
*422 _0396_
*423 _0397_
*424 _0398_
*425 _0399_
*426 _0400_
*427 _0401_
*428 _0402_
*429 _0403_
*430 _0404_
*431 _0405_
*432 _0406_
*433 _0407_
*434 _0408_
*435 _0409_
*436 _0410_
*437 _0411_
*438 _0412_
*439 _0413_
*440 _0414_
*441 _0415_
*442 _0416_
*443 _0417_
*444 _0418_
*445 _0419_
*446 _0420_
*447 _0421_
*448 _0422_
*449 _0423_
*450 _0424_
*451 _0425_
*452 _0426_
*453 _0427_
*454 _0428_
*455 _0429_
*456 _0430_
*457 _0431_
*458 _0432_
*459 _0433_
*460 _0434_
*461 _0435_
*462 _0436_
*463 _0437_
*464 _0438_
*465 _0439_
*466 _0440_
*467 _0441_
*468 _0442_
*469 _0443_
*470 _0444_
*471 _0445_
*472 _0446_
*473 _0447_
*474 _0448_
*475 _0449_
*476 _0450_
*477 _0451_
*478 _0452_
*479 _0453_
*480 _0454_
*481 _0455_
*482 _0456_
*483 _0457_
*484 _0458_
*485 _0459_
*486 _0460_
*487 _0461_
*488 _0462_
*489 _0463_
*490 _0464_
*491 _0465_
*492 _0466_
*493 _0467_
*494 _0468_
*495 _0469_
*496 _0470_
*497 _0471_
*498 _0472_
*499 _0473_
*500 _0474_
*501 _0475_
*502 _0476_
*503 _0477_
*504 _0478_
*505 _0479_
*506 _0480_
*507 _0481_
*508 _0482_
*509 _0483_
*510 _0484_
*511 _0485_
*512 _0486_
*513 _0487_
*514 _0488_
*515 clknet_0_clk
*516 clknet_4_0_0_clk
*517 clknet_4_10_0_clk
*518 clknet_4_11_0_clk
*519 clknet_4_12_0_clk
*520 clknet_4_13_0_clk
*521 clknet_4_14_0_clk
*522 clknet_4_15_0_clk
*523 clknet_4_1_0_clk
*524 clknet_4_2_0_clk
*525 clknet_4_3_0_clk
*526 clknet_4_4_0_clk
*527 clknet_4_5_0_clk
*528 clknet_4_6_0_clk
*529 clknet_4_7_0_clk
*530 clknet_4_8_0_clk
*531 clknet_4_9_0_clk
*532 fifo\[0\]\[0\]
*533 fifo\[0\]\[1\]
*534 fifo\[0\]\[2\]
*535 fifo\[0\]\[3\]
*536 fifo\[0\]\[4\]
*537 fifo\[0\]\[5\]
*538 fifo\[0\]\[6\]
*539 fifo\[0\]\[7\]
*540 fifo\[10\]\[0\]
*541 fifo\[10\]\[1\]
*542 fifo\[10\]\[2\]
*543 fifo\[10\]\[3\]
*544 fifo\[10\]\[4\]
*545 fifo\[10\]\[5\]
*546 fifo\[10\]\[6\]
*547 fifo\[10\]\[7\]
*548 fifo\[11\]\[0\]
*549 fifo\[11\]\[1\]
*550 fifo\[11\]\[2\]
*551 fifo\[11\]\[3\]
*552 fifo\[11\]\[4\]
*553 fifo\[11\]\[5\]
*554 fifo\[11\]\[6\]
*555 fifo\[11\]\[7\]
*556 fifo\[12\]\[0\]
*557 fifo\[12\]\[1\]
*558 fifo\[12\]\[2\]
*559 fifo\[12\]\[3\]
*560 fifo\[12\]\[4\]
*561 fifo\[12\]\[5\]
*562 fifo\[12\]\[6\]
*563 fifo\[12\]\[7\]
*564 fifo\[13\]\[0\]
*565 fifo\[13\]\[1\]
*566 fifo\[13\]\[2\]
*567 fifo\[13\]\[3\]
*568 fifo\[13\]\[4\]
*569 fifo\[13\]\[5\]
*570 fifo\[13\]\[6\]
*571 fifo\[13\]\[7\]
*572 fifo\[14\]\[0\]
*573 fifo\[14\]\[1\]
*574 fifo\[14\]\[2\]
*575 fifo\[14\]\[3\]
*576 fifo\[14\]\[4\]
*577 fifo\[14\]\[5\]
*578 fifo\[14\]\[6\]
*579 fifo\[14\]\[7\]
*580 fifo\[15\]\[0\]
*581 fifo\[15\]\[1\]
*582 fifo\[15\]\[2\]
*583 fifo\[15\]\[3\]
*584 fifo\[15\]\[4\]
*585 fifo\[15\]\[5\]
*586 fifo\[15\]\[6\]
*587 fifo\[15\]\[7\]
*588 fifo\[1\]\[0\]
*589 fifo\[1\]\[1\]
*590 fifo\[1\]\[2\]
*591 fifo\[1\]\[3\]
*592 fifo\[1\]\[4\]
*593 fifo\[1\]\[5\]
*594 fifo\[1\]\[6\]
*595 fifo\[1\]\[7\]
*596 fifo\[2\]\[0\]
*597 fifo\[2\]\[1\]
*598 fifo\[2\]\[2\]
*599 fifo\[2\]\[3\]
*600 fifo\[2\]\[4\]
*601 fifo\[2\]\[5\]
*602 fifo\[2\]\[6\]
*603 fifo\[2\]\[7\]
*604 fifo\[3\]\[0\]
*605 fifo\[3\]\[1\]
*606 fifo\[3\]\[2\]
*607 fifo\[3\]\[3\]
*608 fifo\[3\]\[4\]
*609 fifo\[3\]\[5\]
*610 fifo\[3\]\[6\]
*611 fifo\[3\]\[7\]
*612 fifo\[4\]\[0\]
*613 fifo\[4\]\[1\]
*614 fifo\[4\]\[2\]
*615 fifo\[4\]\[3\]
*616 fifo\[4\]\[4\]
*617 fifo\[4\]\[5\]
*618 fifo\[4\]\[6\]
*619 fifo\[4\]\[7\]
*620 fifo\[5\]\[0\]
*621 fifo\[5\]\[1\]
*622 fifo\[5\]\[2\]
*623 fifo\[5\]\[3\]
*624 fifo\[5\]\[4\]
*625 fifo\[5\]\[5\]
*626 fifo\[5\]\[6\]
*627 fifo\[5\]\[7\]
*628 fifo\[6\]\[0\]
*629 fifo\[6\]\[1\]
*630 fifo\[6\]\[2\]
*631 fifo\[6\]\[3\]
*632 fifo\[6\]\[4\]
*633 fifo\[6\]\[5\]
*634 fifo\[6\]\[6\]
*635 fifo\[6\]\[7\]
*636 fifo\[7\]\[0\]
*637 fifo\[7\]\[1\]
*638 fifo\[7\]\[2\]
*639 fifo\[7\]\[3\]
*640 fifo\[7\]\[4\]
*641 fifo\[7\]\[5\]
*642 fifo\[7\]\[6\]
*643 fifo\[7\]\[7\]
*644 fifo\[8\]\[0\]
*645 fifo\[8\]\[1\]
*646 fifo\[8\]\[2\]
*647 fifo\[8\]\[3\]
*648 fifo\[8\]\[4\]
*649 fifo\[8\]\[5\]
*650 fifo\[8\]\[6\]
*651 fifo\[8\]\[7\]
*652 fifo\[9\]\[0\]
*653 fifo\[9\]\[1\]
*654 fifo\[9\]\[2\]
*655 fifo\[9\]\[3\]
*656 fifo\[9\]\[4\]
*657 fifo\[9\]\[5\]
*658 fifo\[9\]\[6\]
*659 fifo\[9\]\[7\]
*660 head\[0\]
*661 head\[1\]
*662 head\[2\]
*663 head\[3\]
*664 head\[4\]
*665 net1
*666 net10
*667 net100
*668 net101
*669 net102
*670 net103
*671 net104
*672 net105
*673 net106
*674 net107
*675 net108
*676 net109
*677 net11
*678 net110
*679 net111
*680 net112
*681 net113
*682 net114
*683 net115
*684 net116
*685 net117
*686 net118
*687 net119
*688 net12
*689 net120
*690 net121
*691 net122
*692 net123
*693 net124
*694 net125
*695 net126
*696 net127
*697 net128
*698 net129
*699 net13
*700 net130
*701 net131
*702 net132
*703 net133
*704 net134
*705 net135
*706 net136
*707 net137
*708 net138
*709 net139
*710 net14
*711 net140
*712 net141
*713 net142
*714 net143
*715 net144
*716 net145
*717 net146
*718 net147
*719 net148
*720 net149
*721 net15
*722 net150
*723 net151
*724 net152
*725 net153
*726 net154
*727 net155
*728 net156
*729 net157
*730 net158
*731 net159
*732 net16
*733 net160
*734 net161
*735 net162
*736 net163
*737 net164
*738 net165
*739 net166
*740 net17
*741 net18
*742 net19
*743 net2
*744 net20
*745 net21
*746 net22
*747 net23
*748 net24
*749 net25
*750 net26
*751 net27
*752 net28
*753 net29
*754 net3
*755 net30
*756 net31
*757 net32
*758 net33
*759 net34
*760 net35
*761 net36
*762 net37
*763 net38
*764 net39
*765 net4
*766 net40
*767 net41
*768 net42
*769 net43
*770 net44
*771 net45
*772 net46
*773 net47
*774 net48
*775 net49
*776 net5
*777 net50
*778 net51
*779 net52
*780 net53
*781 net54
*782 net55
*783 net56
*784 net57
*785 net58
*786 net59
*787 net6
*788 net60
*789 net61
*790 net62
*791 net63
*792 net64
*793 net65
*794 net66
*795 net67
*796 net68
*797 net69
*798 net7
*799 net70
*800 net71
*801 net72
*802 net73
*803 net74
*804 net75
*805 net76
*806 net77
*807 net78
*808 net79
*809 net8
*810 net80
*811 net81
*812 net82
*813 net83
*814 net84
*815 net85
*816 net86
*817 net87
*818 net88
*819 net89
*820 net9
*821 net90
*822 net91
*823 net92
*824 net93
*825 net94
*826 net95
*827 net96
*828 net97
*829 net98
*830 net99
*831 tail\[0\]
*832 tail\[1\]
*833 tail\[2\]
*834 tail\[3\]
*835 tail\[4\]
*836 FILLER_0_0_109
*837 FILLER_0_0_119
*838 FILLER_0_0_131
*839 FILLER_0_0_139
*840 FILLER_0_0_141
*841 FILLER_0_0_153
*842 FILLER_0_0_165
*843 FILLER_0_0_169
*844 FILLER_0_0_177
*845 FILLER_0_0_184
*846 FILLER_0_0_197
*847 FILLER_0_0_209
*848 FILLER_0_0_21
*849 FILLER_0_0_221
*850 FILLER_0_0_225
*851 FILLER_0_0_237
*852 FILLER_0_0_247
*853 FILLER_0_0_251
*854 FILLER_0_0_253
*855 FILLER_0_0_265
*856 FILLER_0_0_27
*857 FILLER_0_0_277
*858 FILLER_0_0_281
*859 FILLER_0_0_29
*860 FILLER_0_0_293
*861 FILLER_0_0_301
*862 FILLER_0_0_309
*863 FILLER_0_0_321
*864 FILLER_0_0_41
*865 FILLER_0_0_49
*866 FILLER_0_0_57
*867 FILLER_0_0_69
*868 FILLER_0_0_81
*869 FILLER_0_0_85
*870 FILLER_0_0_9
*871 FILLER_0_0_97
*872 FILLER_0_10_110
*873 FILLER_0_10_122
*874 FILLER_0_10_130
*875 FILLER_0_10_136
*876 FILLER_0_10_15
*877 FILLER_0_10_158
*878 FILLER_0_10_166
*879 FILLER_0_10_184
*880 FILLER_0_10_197
*881 FILLER_0_10_205
*882 FILLER_0_10_223
*883 FILLER_0_10_235
*884 FILLER_0_10_244
*885 FILLER_0_10_253
*886 FILLER_0_10_265
*887 FILLER_0_10_27
*888 FILLER_0_10_29
*889 FILLER_0_10_3
*890 FILLER_0_10_303
*891 FILLER_0_10_307
*892 FILLER_0_10_309
*893 FILLER_0_10_321
*894 FILLER_0_10_41
*895 FILLER_0_10_78
*896 FILLER_0_10_85
*897 FILLER_0_11_107
*898 FILLER_0_11_111
*899 FILLER_0_11_113
*900 FILLER_0_11_125
*901 FILLER_0_11_137
*902 FILLER_0_11_15
*903 FILLER_0_11_154
*904 FILLER_0_11_202
*905 FILLER_0_11_214
*906 FILLER_0_11_222
*907 FILLER_0_11_225
*908 FILLER_0_11_233
*909 FILLER_0_11_245
*910 FILLER_0_11_257
*911 FILLER_0_11_269
*912 FILLER_0_11_27
*913 FILLER_0_11_281
*914 FILLER_0_11_3
*915 FILLER_0_11_303
*916 FILLER_0_11_315
*917 FILLER_0_11_327
*918 FILLER_0_11_39
*919 FILLER_0_11_54
*920 FILLER_0_11_57
*921 FILLER_0_11_61
*922 FILLER_0_11_70
*923 FILLER_0_11_83
*924 FILLER_0_11_87
*925 FILLER_0_11_96
*926 FILLER_0_12_113
*927 FILLER_0_12_126
*928 FILLER_0_12_138
*929 FILLER_0_12_141
*930 FILLER_0_12_15
*931 FILLER_0_12_153
*932 FILLER_0_12_165
*933 FILLER_0_12_171
*934 FILLER_0_12_197
*935 FILLER_0_12_22
*936 FILLER_0_12_222
*937 FILLER_0_12_230
*938 FILLER_0_12_239
*939 FILLER_0_12_243
*940 FILLER_0_12_270
*941 FILLER_0_12_274
*942 FILLER_0_12_281
*943 FILLER_0_12_29
*944 FILLER_0_12_293
*945 FILLER_0_12_3
*946 FILLER_0_12_301
*947 FILLER_0_12_306
*948 FILLER_0_12_325
*949 FILLER_0_12_41
*950 FILLER_0_12_53
*951 FILLER_0_12_65
*952 FILLER_0_12_72
*953 FILLER_0_12_85
*954 FILLER_0_12_97
*955 FILLER_0_13_104
*956 FILLER_0_13_108
*957 FILLER_0_13_137
*958 FILLER_0_13_169
*959 FILLER_0_13_181
*960 FILLER_0_13_189
*961 FILLER_0_13_218
*962 FILLER_0_13_225
*963 FILLER_0_13_237
*964 FILLER_0_13_274
*965 FILLER_0_13_281
*966 FILLER_0_13_289
*967 FILLER_0_13_3
*968 FILLER_0_13_31
*969 FILLER_0_13_317
*970 FILLER_0_13_327
*971 FILLER_0_13_43
*972 FILLER_0_13_55
*973 FILLER_0_13_57
*974 FILLER_0_13_63
*975 FILLER_0_13_80
*976 FILLER_0_13_92
*977 FILLER_0_14_103
*978 FILLER_0_14_110
*979 FILLER_0_14_118
*980 FILLER_0_14_130
*981 FILLER_0_14_138
*982 FILLER_0_14_15
*983 FILLER_0_14_150
*984 FILLER_0_14_162
*985 FILLER_0_14_174
*986 FILLER_0_14_186
*987 FILLER_0_14_19
*988 FILLER_0_14_194
*989 FILLER_0_14_197
*990 FILLER_0_14_223
*991 FILLER_0_14_235
*992 FILLER_0_14_243
*993 FILLER_0_14_248
*994 FILLER_0_14_27
*995 FILLER_0_14_270
*996 FILLER_0_14_282
*997 FILLER_0_14_294
*998 FILLER_0_14_3
*999 FILLER_0_14_302
*1000 FILLER_0_14_307
*1001 FILLER_0_14_326
*1002 FILLER_0_14_330
*1003 FILLER_0_14_46
*1004 FILLER_0_14_58
*1005 FILLER_0_14_70
*1006 FILLER_0_14_83
*1007 FILLER_0_14_93
*1008 FILLER_0_15_122
*1009 FILLER_0_15_139
*1010 FILLER_0_15_151
*1011 FILLER_0_15_163
*1012 FILLER_0_15_167
*1013 FILLER_0_15_169
*1014 FILLER_0_15_181
*1015 FILLER_0_15_193
*1016 FILLER_0_15_210
*1017 FILLER_0_15_222
*1018 FILLER_0_15_225
*1019 FILLER_0_15_237
*1020 FILLER_0_15_249
*1021 FILLER_0_15_261
*1022 FILLER_0_15_279
*1023 FILLER_0_15_290
*1024 FILLER_0_15_3
*1025 FILLER_0_15_302
*1026 FILLER_0_15_314
*1027 FILLER_0_15_326
*1028 FILLER_0_15_330
*1029 FILLER_0_15_55
*1030 FILLER_0_15_57
*1031 FILLER_0_15_68
*1032 FILLER_0_15_72
*1033 FILLER_0_15_94
*1034 FILLER_0_16_107
*1035 FILLER_0_16_123
*1036 FILLER_0_16_168
*1037 FILLER_0_16_180
*1038 FILLER_0_16_187
*1039 FILLER_0_16_193
*1040 FILLER_0_16_221
*1041 FILLER_0_16_225
*1042 FILLER_0_16_242
*1043 FILLER_0_16_250
*1044 FILLER_0_16_253
*1045 FILLER_0_16_261
*1046 FILLER_0_16_3
*1047 FILLER_0_16_302
*1048 FILLER_0_16_309
*1049 FILLER_0_16_321
*1050 FILLER_0_16_329
*1051 FILLER_0_16_46
*1052 FILLER_0_16_67
*1053 FILLER_0_17_103
*1054 FILLER_0_17_111
*1055 FILLER_0_17_113
*1056 FILLER_0_17_125
*1057 FILLER_0_17_140
*1058 FILLER_0_17_15
*1059 FILLER_0_17_169
*1060 FILLER_0_17_177
*1061 FILLER_0_17_223
*1062 FILLER_0_17_249
*1063 FILLER_0_17_261
*1064 FILLER_0_17_265
*1065 FILLER_0_17_269
*1066 FILLER_0_17_279
*1067 FILLER_0_17_289
*1068 FILLER_0_17_3
*1069 FILLER_0_17_301
*1070 FILLER_0_17_313
*1071 FILLER_0_17_325
*1072 FILLER_0_17_91
*1073 FILLER_0_18_111
*1074 FILLER_0_18_123
*1075 FILLER_0_18_135
*1076 FILLER_0_18_139
*1077 FILLER_0_18_141
*1078 FILLER_0_18_15
*1079 FILLER_0_18_153
*1080 FILLER_0_18_174
*1081 FILLER_0_18_186
*1082 FILLER_0_18_194
*1083 FILLER_0_18_206
*1084 FILLER_0_18_215
*1085 FILLER_0_18_246
*1086 FILLER_0_18_253
*1087 FILLER_0_18_261
*1088 FILLER_0_18_27
*1089 FILLER_0_18_275
*1090 FILLER_0_18_287
*1091 FILLER_0_18_29
*1092 FILLER_0_18_299
*1093 FILLER_0_18_3
*1094 FILLER_0_18_307
*1095 FILLER_0_18_318
*1096 FILLER_0_18_33
*1097 FILLER_0_18_330
*1098 FILLER_0_18_45
*1099 FILLER_0_18_65
*1100 FILLER_0_18_76
*1101 FILLER_0_18_83
*1102 FILLER_0_18_85
*1103 FILLER_0_18_99
*1104 FILLER_0_19_105
*1105 FILLER_0_19_111
*1106 FILLER_0_19_113
*1107 FILLER_0_19_125
*1108 FILLER_0_19_134
*1109 FILLER_0_19_144
*1110 FILLER_0_19_156
*1111 FILLER_0_19_169
*1112 FILLER_0_19_181
*1113 FILLER_0_19_193
*1114 FILLER_0_19_205
*1115 FILLER_0_19_21
*1116 FILLER_0_19_222
*1117 FILLER_0_19_225
*1118 FILLER_0_19_230
*1119 FILLER_0_19_238
*1120 FILLER_0_19_249
*1121 FILLER_0_19_253
*1122 FILLER_0_19_263
*1123 FILLER_0_19_290
*1124 FILLER_0_19_323
*1125 FILLER_0_19_33
*1126 FILLER_0_19_45
*1127 FILLER_0_19_53
*1128 FILLER_0_19_57
*1129 FILLER_0_19_69
*1130 FILLER_0_19_81
*1131 FILLER_0_19_9
*1132 FILLER_0_1_106
*1133 FILLER_0_1_116
*1134 FILLER_0_1_128
*1135 FILLER_0_1_133
*1136 FILLER_0_1_139
*1137 FILLER_0_1_15
*1138 FILLER_0_1_151
*1139 FILLER_0_1_163
*1140 FILLER_0_1_167
*1141 FILLER_0_1_172
*1142 FILLER_0_1_184
*1143 FILLER_0_1_196
*1144 FILLER_0_1_208
*1145 FILLER_0_1_220
*1146 FILLER_0_1_225
*1147 FILLER_0_1_237
*1148 FILLER_0_1_249
*1149 FILLER_0_1_261
*1150 FILLER_0_1_27
*1151 FILLER_0_1_273
*1152 FILLER_0_1_279
*1153 FILLER_0_1_281
*1154 FILLER_0_1_293
*1155 FILLER_0_1_3
*1156 FILLER_0_1_305
*1157 FILLER_0_1_317
*1158 FILLER_0_1_329
*1159 FILLER_0_1_39
*1160 FILLER_0_1_51
*1161 FILLER_0_1_55
*1162 FILLER_0_1_57
*1163 FILLER_0_1_69
*1164 FILLER_0_1_81
*1165 FILLER_0_1_85
*1166 FILLER_0_20_109
*1167 FILLER_0_20_15
*1168 FILLER_0_20_171
*1169 FILLER_0_20_183
*1170 FILLER_0_20_195
*1171 FILLER_0_20_205
*1172 FILLER_0_20_217
*1173 FILLER_0_20_229
*1174 FILLER_0_20_241
*1175 FILLER_0_20_27
*1176 FILLER_0_20_285
*1177 FILLER_0_20_3
*1178 FILLER_0_20_317
*1179 FILLER_0_20_32
*1180 FILLER_0_20_329
*1181 FILLER_0_20_44
*1182 FILLER_0_20_56
*1183 FILLER_0_20_68
*1184 FILLER_0_20_80
*1185 FILLER_0_20_85
*1186 FILLER_0_20_97
*1187 FILLER_0_21_103
*1188 FILLER_0_21_11
*1189 FILLER_0_21_110
*1190 FILLER_0_21_122
*1191 FILLER_0_21_148
*1192 FILLER_0_21_164
*1193 FILLER_0_21_173
*1194 FILLER_0_21_185
*1195 FILLER_0_21_210
*1196 FILLER_0_21_222
*1197 FILLER_0_21_231
*1198 FILLER_0_21_243
*1199 FILLER_0_21_255
*1200 FILLER_0_21_275
*1201 FILLER_0_21_279
*1202 FILLER_0_21_281
*1203 FILLER_0_21_29
*1204 FILLER_0_21_293
*1205 FILLER_0_21_3
*1206 FILLER_0_21_316
*1207 FILLER_0_21_320
*1208 FILLER_0_21_46
*1209 FILLER_0_21_52
*1210 FILLER_0_21_57
*1211 FILLER_0_21_63
*1212 FILLER_0_21_67
*1213 FILLER_0_21_79
*1214 FILLER_0_21_91
*1215 FILLER_0_22_11
*1216 FILLER_0_22_119
*1217 FILLER_0_22_138
*1218 FILLER_0_22_141
*1219 FILLER_0_22_171
*1220 FILLER_0_22_191
*1221 FILLER_0_22_195
*1222 FILLER_0_22_206
*1223 FILLER_0_22_224
*1224 FILLER_0_22_236
*1225 FILLER_0_22_248
*1226 FILLER_0_22_253
*1227 FILLER_0_22_265
*1228 FILLER_0_22_277
*1229 FILLER_0_22_289
*1230 FILLER_0_22_3
*1231 FILLER_0_22_301
*1232 FILLER_0_22_307
*1233 FILLER_0_22_309
*1234 FILLER_0_22_321
*1235 FILLER_0_22_329
*1236 FILLER_0_22_38
*1237 FILLER_0_22_82
*1238 FILLER_0_22_85
*1239 FILLER_0_22_97
*1240 FILLER_0_23_105
*1241 FILLER_0_23_111
*1242 FILLER_0_23_113
*1243 FILLER_0_23_119
*1244 FILLER_0_23_15
*1245 FILLER_0_23_152
*1246 FILLER_0_23_164
*1247 FILLER_0_23_169
*1248 FILLER_0_23_175
*1249 FILLER_0_23_20
*1250 FILLER_0_23_228
*1251 FILLER_0_23_238
*1252 FILLER_0_23_250
*1253 FILLER_0_23_262
*1254 FILLER_0_23_270
*1255 FILLER_0_23_297
*1256 FILLER_0_23_3
*1257 FILLER_0_23_309
*1258 FILLER_0_23_321
*1259 FILLER_0_23_329
*1260 FILLER_0_23_38
*1261 FILLER_0_23_50
*1262 FILLER_0_23_66
*1263 FILLER_0_23_79
*1264 FILLER_0_23_83
*1265 FILLER_0_23_93
*1266 FILLER_0_24_109
*1267 FILLER_0_24_117
*1268 FILLER_0_24_126
*1269 FILLER_0_24_138
*1270 FILLER_0_24_141
*1271 FILLER_0_24_15
*1272 FILLER_0_24_153
*1273 FILLER_0_24_165
*1274 FILLER_0_24_177
*1275 FILLER_0_24_182
*1276 FILLER_0_24_191
*1277 FILLER_0_24_195
*1278 FILLER_0_24_205
*1279 FILLER_0_24_209
*1280 FILLER_0_24_217
*1281 FILLER_0_24_229
*1282 FILLER_0_24_249
*1283 FILLER_0_24_253
*1284 FILLER_0_24_261
*1285 FILLER_0_24_27
*1286 FILLER_0_24_29
*1287 FILLER_0_24_3
*1288 FILLER_0_24_300
*1289 FILLER_0_24_309
*1290 FILLER_0_24_321
*1291 FILLER_0_24_329
*1292 FILLER_0_24_41
*1293 FILLER_0_24_53
*1294 FILLER_0_24_59
*1295 FILLER_0_24_68
*1296 FILLER_0_24_79
*1297 FILLER_0_25_111
*1298 FILLER_0_25_118
*1299 FILLER_0_25_130
*1300 FILLER_0_25_142
*1301 FILLER_0_25_15
*1302 FILLER_0_25_150
*1303 FILLER_0_25_158
*1304 FILLER_0_25_166
*1305 FILLER_0_25_169
*1306 FILLER_0_25_181
*1307 FILLER_0_25_193
*1308 FILLER_0_25_205
*1309 FILLER_0_25_217
*1310 FILLER_0_25_264
*1311 FILLER_0_25_27
*1312 FILLER_0_25_271
*1313 FILLER_0_25_277
*1314 FILLER_0_25_298
*1315 FILLER_0_25_3
*1316 FILLER_0_25_310
*1317 FILLER_0_25_322
*1318 FILLER_0_25_33
*1319 FILLER_0_25_330
*1320 FILLER_0_25_43
*1321 FILLER_0_25_55
*1322 FILLER_0_25_57
*1323 FILLER_0_25_69
*1324 FILLER_0_25_81
*1325 FILLER_0_25_93
*1326 FILLER_0_26_118
*1327 FILLER_0_26_130
*1328 FILLER_0_26_138
*1329 FILLER_0_26_141
*1330 FILLER_0_26_15
*1331 FILLER_0_26_153
*1332 FILLER_0_26_165
*1333 FILLER_0_26_177
*1334 FILLER_0_26_185
*1335 FILLER_0_26_189
*1336 FILLER_0_26_195
*1337 FILLER_0_26_197
*1338 FILLER_0_26_209
*1339 FILLER_0_26_21
*1340 FILLER_0_26_221
*1341 FILLER_0_26_241
*1342 FILLER_0_26_272
*1343 FILLER_0_26_284
*1344 FILLER_0_26_296
*1345 FILLER_0_26_3
*1346 FILLER_0_26_325
*1347 FILLER_0_26_53
*1348 FILLER_0_26_61
*1349 FILLER_0_26_75
*1350 FILLER_0_26_83
*1351 FILLER_0_26_85
*1352 FILLER_0_26_93
*1353 FILLER_0_27_102
*1354 FILLER_0_27_110
*1355 FILLER_0_27_113
*1356 FILLER_0_27_125
*1357 FILLER_0_27_129
*1358 FILLER_0_27_15
*1359 FILLER_0_27_157
*1360 FILLER_0_27_166
*1361 FILLER_0_27_169
*1362 FILLER_0_27_177
*1363 FILLER_0_27_196
*1364 FILLER_0_27_208
*1365 FILLER_0_27_220
*1366 FILLER_0_27_225
*1367 FILLER_0_27_229
*1368 FILLER_0_27_23
*1369 FILLER_0_27_233
*1370 FILLER_0_27_245
*1371 FILLER_0_27_250
*1372 FILLER_0_27_278
*1373 FILLER_0_27_281
*1374 FILLER_0_27_3
*1375 FILLER_0_27_329
*1376 FILLER_0_27_50
*1377 FILLER_0_27_57
*1378 FILLER_0_27_89
*1379 FILLER_0_27_97
*1380 FILLER_0_28_109
*1381 FILLER_0_28_117
*1382 FILLER_0_28_127
*1383 FILLER_0_28_144
*1384 FILLER_0_28_15
*1385 FILLER_0_28_189
*1386 FILLER_0_28_195
*1387 FILLER_0_28_204
*1388 FILLER_0_28_217
*1389 FILLER_0_28_229
*1390 FILLER_0_28_241
*1391 FILLER_0_28_249
*1392 FILLER_0_28_261
*1393 FILLER_0_28_27
*1394 FILLER_0_28_273
*1395 FILLER_0_28_285
*1396 FILLER_0_28_29
*1397 FILLER_0_28_297
*1398 FILLER_0_28_3
*1399 FILLER_0_28_318
*1400 FILLER_0_28_324
*1401 FILLER_0_28_330
*1402 FILLER_0_28_41
*1403 FILLER_0_28_58
*1404 FILLER_0_28_80
*1405 FILLER_0_28_85
*1406 FILLER_0_28_97
*1407 FILLER_0_29_102
*1408 FILLER_0_29_110
*1409 FILLER_0_29_113
*1410 FILLER_0_29_129
*1411 FILLER_0_29_147
*1412 FILLER_0_29_15
*1413 FILLER_0_29_151
*1414 FILLER_0_29_161
*1415 FILLER_0_29_167
*1416 FILLER_0_29_169
*1417 FILLER_0_29_225
*1418 FILLER_0_29_237
*1419 FILLER_0_29_249
*1420 FILLER_0_29_261
*1421 FILLER_0_29_269
*1422 FILLER_0_29_27
*1423 FILLER_0_29_279
*1424 FILLER_0_29_290
*1425 FILLER_0_29_299
*1426 FILLER_0_29_3
*1427 FILLER_0_29_303
*1428 FILLER_0_29_308
*1429 FILLER_0_29_313
*1430 FILLER_0_29_325
*1431 FILLER_0_29_39
*1432 FILLER_0_29_51
*1433 FILLER_0_29_55
*1434 FILLER_0_29_57
*1435 FILLER_0_29_72
*1436 FILLER_0_29_90
*1437 FILLER_0_2_15
*1438 FILLER_0_2_150
*1439 FILLER_0_2_178
*1440 FILLER_0_2_190
*1441 FILLER_0_2_197
*1442 FILLER_0_2_209
*1443 FILLER_0_2_221
*1444 FILLER_0_2_233
*1445 FILLER_0_2_245
*1446 FILLER_0_2_251
*1447 FILLER_0_2_253
*1448 FILLER_0_2_265
*1449 FILLER_0_2_27
*1450 FILLER_0_2_277
*1451 FILLER_0_2_289
*1452 FILLER_0_2_29
*1453 FILLER_0_2_3
*1454 FILLER_0_2_301
*1455 FILLER_0_2_307
*1456 FILLER_0_2_309
*1457 FILLER_0_2_321
*1458 FILLER_0_2_329
*1459 FILLER_0_2_41
*1460 FILLER_0_2_53
*1461 FILLER_0_2_65
*1462 FILLER_0_2_77
*1463 FILLER_0_2_83
*1464 FILLER_0_2_85
*1465 FILLER_0_30_115
*1466 FILLER_0_30_141
*1467 FILLER_0_30_15
*1468 FILLER_0_30_176
*1469 FILLER_0_30_213
*1470 FILLER_0_30_24
*1471 FILLER_0_30_242
*1472 FILLER_0_30_250
*1473 FILLER_0_30_253
*1474 FILLER_0_30_305
*1475 FILLER_0_30_309
*1476 FILLER_0_30_321
*1477 FILLER_0_30_329
*1478 FILLER_0_30_53
*1479 FILLER_0_30_59
*1480 FILLER_0_30_7
*1481 FILLER_0_30_77
*1482 FILLER_0_30_83
*1483 FILLER_0_30_85
*1484 FILLER_0_30_97
*1485 FILLER_0_31_146
*1486 FILLER_0_31_155
*1487 FILLER_0_31_167
*1488 FILLER_0_31_169
*1489 FILLER_0_31_191
*1490 FILLER_0_31_196
*1491 FILLER_0_31_206
*1492 FILLER_0_31_241
*1493 FILLER_0_31_253
*1494 FILLER_0_31_265
*1495 FILLER_0_31_271
*1496 FILLER_0_31_278
*1497 FILLER_0_31_289
*1498 FILLER_0_31_3
*1499 FILLER_0_31_301
*1500 FILLER_0_31_313
*1501 FILLER_0_31_325
*1502 FILLER_0_31_47
*1503 FILLER_0_31_82
*1504 FILLER_0_31_94
*1505 FILLER_0_32_105
*1506 FILLER_0_32_122
*1507 FILLER_0_32_126
*1508 FILLER_0_32_135
*1509 FILLER_0_32_139
*1510 FILLER_0_32_141
*1511 FILLER_0_32_15
*1512 FILLER_0_32_153
*1513 FILLER_0_32_165
*1514 FILLER_0_32_177
*1515 FILLER_0_32_181
*1516 FILLER_0_32_195
*1517 FILLER_0_32_197
*1518 FILLER_0_32_205
*1519 FILLER_0_32_215
*1520 FILLER_0_32_219
*1521 FILLER_0_32_238
*1522 FILLER_0_32_246
*1523 FILLER_0_32_253
*1524 FILLER_0_32_265
*1525 FILLER_0_32_27
*1526 FILLER_0_32_287
*1527 FILLER_0_32_295
*1528 FILLER_0_32_3
*1529 FILLER_0_32_306
*1530 FILLER_0_32_309
*1531 FILLER_0_32_321
*1532 FILLER_0_32_38
*1533 FILLER_0_32_48
*1534 FILLER_0_32_60
*1535 FILLER_0_32_80
*1536 FILLER_0_32_93
*1537 FILLER_0_33_108
*1538 FILLER_0_33_113
*1539 FILLER_0_33_125
*1540 FILLER_0_33_148
*1541 FILLER_0_33_15
*1542 FILLER_0_33_160
*1543 FILLER_0_33_169
*1544 FILLER_0_33_181
*1545 FILLER_0_33_193
*1546 FILLER_0_33_205
*1547 FILLER_0_33_217
*1548 FILLER_0_33_223
*1549 FILLER_0_33_225
*1550 FILLER_0_33_237
*1551 FILLER_0_33_27
*1552 FILLER_0_33_270
*1553 FILLER_0_33_277
*1554 FILLER_0_33_299
*1555 FILLER_0_33_3
*1556 FILLER_0_33_305
*1557 FILLER_0_33_322
*1558 FILLER_0_33_330
*1559 FILLER_0_33_39
*1560 FILLER_0_33_51
*1561 FILLER_0_33_55
*1562 FILLER_0_33_57
*1563 FILLER_0_33_65
*1564 FILLER_0_33_96
*1565 FILLER_0_34_102
*1566 FILLER_0_34_112
*1567 FILLER_0_34_131
*1568 FILLER_0_34_139
*1569 FILLER_0_34_144
*1570 FILLER_0_34_15
*1571 FILLER_0_34_156
*1572 FILLER_0_34_168
*1573 FILLER_0_34_180
*1574 FILLER_0_34_192
*1575 FILLER_0_34_197
*1576 FILLER_0_34_209
*1577 FILLER_0_34_221
*1578 FILLER_0_34_233
*1579 FILLER_0_34_245
*1580 FILLER_0_34_251
*1581 FILLER_0_34_253
*1582 FILLER_0_34_261
*1583 FILLER_0_34_27
*1584 FILLER_0_34_278
*1585 FILLER_0_34_29
*1586 FILLER_0_34_290
*1587 FILLER_0_34_3
*1588 FILLER_0_34_328
*1589 FILLER_0_34_41
*1590 FILLER_0_34_58
*1591 FILLER_0_34_66
*1592 FILLER_0_34_94
*1593 FILLER_0_35_121
*1594 FILLER_0_35_135
*1595 FILLER_0_35_147
*1596 FILLER_0_35_15
*1597 FILLER_0_35_159
*1598 FILLER_0_35_167
*1599 FILLER_0_35_169
*1600 FILLER_0_35_180
*1601 FILLER_0_35_192
*1602 FILLER_0_35_204
*1603 FILLER_0_35_216
*1604 FILLER_0_35_225
*1605 FILLER_0_35_237
*1606 FILLER_0_35_246
*1607 FILLER_0_35_27
*1608 FILLER_0_35_274
*1609 FILLER_0_35_287
*1610 FILLER_0_35_299
*1611 FILLER_0_35_3
*1612 FILLER_0_35_325
*1613 FILLER_0_35_39
*1614 FILLER_0_35_66
*1615 FILLER_0_35_93
*1616 FILLER_0_36_109
*1617 FILLER_0_36_115
*1618 FILLER_0_36_127
*1619 FILLER_0_36_139
*1620 FILLER_0_36_141
*1621 FILLER_0_36_15
*1622 FILLER_0_36_153
*1623 FILLER_0_36_161
*1624 FILLER_0_36_166
*1625 FILLER_0_36_195
*1626 FILLER_0_36_197
*1627 FILLER_0_36_214
*1628 FILLER_0_36_218
*1629 FILLER_0_36_224
*1630 FILLER_0_36_262
*1631 FILLER_0_36_266
*1632 FILLER_0_36_27
*1633 FILLER_0_36_278
*1634 FILLER_0_36_290
*1635 FILLER_0_36_3
*1636 FILLER_0_36_302
*1637 FILLER_0_36_317
*1638 FILLER_0_36_329
*1639 FILLER_0_36_54
*1640 FILLER_0_36_58
*1641 FILLER_0_36_76
*1642 FILLER_0_36_80
*1643 FILLER_0_36_85
*1644 FILLER_0_36_93
*1645 FILLER_0_37_108
*1646 FILLER_0_37_113
*1647 FILLER_0_37_125
*1648 FILLER_0_37_138
*1649 FILLER_0_37_148
*1650 FILLER_0_37_15
*1651 FILLER_0_37_156
*1652 FILLER_0_37_166
*1653 FILLER_0_37_195
*1654 FILLER_0_37_207
*1655 FILLER_0_37_223
*1656 FILLER_0_37_225
*1657 FILLER_0_37_229
*1658 FILLER_0_37_23
*1659 FILLER_0_37_237
*1660 FILLER_0_37_264
*1661 FILLER_0_37_272
*1662 FILLER_0_37_281
*1663 FILLER_0_37_3
*1664 FILLER_0_37_314
*1665 FILLER_0_37_326
*1666 FILLER_0_37_330
*1667 FILLER_0_37_52
*1668 FILLER_0_37_57
*1669 FILLER_0_37_84
*1670 FILLER_0_37_96
*1671 FILLER_0_38_105
*1672 FILLER_0_38_117
*1673 FILLER_0_38_125
*1674 FILLER_0_38_138
*1675 FILLER_0_38_15
*1676 FILLER_0_38_153
*1677 FILLER_0_38_161
*1678 FILLER_0_38_191
*1679 FILLER_0_38_197
*1680 FILLER_0_38_238
*1681 FILLER_0_38_242
*1682 FILLER_0_38_246
*1683 FILLER_0_38_253
*1684 FILLER_0_38_265
*1685 FILLER_0_38_269
*1686 FILLER_0_38_27
*1687 FILLER_0_38_286
*1688 FILLER_0_38_29
*1689 FILLER_0_38_3
*1690 FILLER_0_38_303
*1691 FILLER_0_38_307
*1692 FILLER_0_38_309
*1693 FILLER_0_38_321
*1694 FILLER_0_38_329
*1695 FILLER_0_38_34
*1696 FILLER_0_38_42
*1697 FILLER_0_38_60
*1698 FILLER_0_38_72
*1699 FILLER_0_38_93
*1700 FILLER_0_39_105
*1701 FILLER_0_39_111
*1702 FILLER_0_39_113
*1703 FILLER_0_39_125
*1704 FILLER_0_39_15
*1705 FILLER_0_39_162